<NUMBER OF ZONES> 2
<END OF METADATA>

Origin  1
    1 :      0.0;     2 :     73.6;

