<NUMBER OF ZONES> 2
<ELASTICITY> 0.065
<END OF METADATA>

Origin  1
    1 :      0.0;     2 :     92.0;

