<NUMBER OF ZONES> 9
<END OF METADATA>


Origin 	1
    3 :    19.8;     4 :    19.3;

Origin 	2
    3 :    19.5;     4 :    20.1;
