<NUMBER OF ZONES> 9
<TOTAL OD FLOW> 100.0
<END OF METADATA>


Origin 	1 
    3 :    10.0;     4 :    20.0;

Origin 	2 
    3 :    30.0;     4 :    40.0;
