<NUMBER OF ZONES> 9											
<NUMBER OF NODES> 9											
<FIRST THRU NODE> 1											
<NUMBER OF LINKS> 18											
<END OF METADATA>											


~ 	Init node 	Term node 	Capacity 	Length 	Free Flow Time 	B	Power	Speed limit 	Toll 	Type	;
	1	5	12	6	5	0.15	4	0	0	1	;
	1	6	18	4	6	0.15	4	0	0	1	;
	2	5	35	6	3	0.15	4	0	0	1	;
	2	6	35	5	9	0.15	4	0	0	1	;
	5	6	20	4	9	0.15	4	0	0	1	;
	5	7	11	4	2	0.15	4	0	0	1	;
	5	9	26	4	8	0.15	4	0	0	1	;
	6	5	11	4	4	0.15	4	0	0	1	;
	6	8	33	2	6	0.15	4	0	0	1	;
	6	9	32	6	7	0.15	4	0	0	1	;
	7	3	25	2	3	0.15	4	0	1	1	;
	7	4	24	4	6	0.15	4	0	1	1	;
	7	8	19	5	2	0.15	4	0	0	1	;
	8	3	39	5	8	0.15	4	0	0	1	;
	8	4	43	4	6	0.15	4	0	0	1	;
	8	7	36	2	4	0.15	4	0	0	1	;
	9	7	26	3	4	0.15	4	0	0	1	;
	9	8	30	2	3	0.15	4	0	0	1	;
