<NUMBER OF ZONES> 9
<ELASTICITY> 1.0
<END OF METADATA>


Origin 	1
    3 :     24.7;     4 :     24.1;

Origin 	2
    3 :     24.4;     4 :     25.1;
