<NUMBER OF ZONES> 24
<ELASTICITY> 0.05
<END OF METADATA>


Origin  1
    1 :      0.0;     2 :      6.0;     3 :      4.0;     4 :      8.3;     5 :     10.6;
    6 :     12.6;     7 :     32.8;     8 :     27.3;     9 :     20.2;    10 :     25.9;
   11 :     15.4;    12 :      8.0;    13 :     11.1;    14 :     29.1;    15 :     39.6;
   16 :     38.0;    17 :     42.2;    18 :     34.8;    19 :     44.0;    20 :     39.1;
   21 :     40.5;    22 :     44.7;    23 :     32.4;    24 :     28.7;
Origin  2
    1 :      6.0;     2 :      0.0;     3 :     10.0;     4 :     14.3;     5 :     16.6;
    6 :      6.6;     7 :     26.8;     8 :     21.3;     9 :     26.2;    10 :     31.9;
   11 :     21.4;    12 :     14.0;    13 :     17.1;    14 :     35.1;    15 :     45.7;
   16 :     32.0;    17 :     41.5;    18 :      0.0;    19 :     42.6;    20 :     33.1;
   21 :      0.0;    22 :     40.8;    23 :      0.0;    24 :      0.0;
Origin  3
    1 :      4.0;     2 :     10.0;     3 :      0.0;     4 :      4.3;     5 :      6.6;
    6 :     16.6;     7 :     36.8;     8 :     31.3;     9 :     16.2;    10 :     21.9;
   11 :     11.4;    12 :      4.0;    13 :      7.0;    14 :     25.1;    15 :     35.6;
   16 :     42.0;    17 :     38.2;    18 :      0.0;    19 :      0.0;    20 :      0.0;
   21 :      0.0;    22 :     40.7;    23 :     28.4;    24 :      0.0;
Origin  4
    1 :      8.3;     2 :     14.3;     3 :      4.3;     4 :      0.0;     5 :      2.3;
    6 :     12.3;     7 :     32.5;     8 :     27.0;     9 :     12.0;    10 :     17.6;
   11 :      7.1;    12 :      8.3;    13 :     11.3;    14 :     20.8;    15 :     31.4;
   16 :     37.7;    17 :     34.0;    18 :     34.6;    19 :     35.7;    20 :     38.8;
   21 :     40.7;    22 :     40.5;    23 :     29.9;    24 :     29.0;
Origin  5
    1 :     10.6;     2 :     16.6;     3 :      6.6;     4 :      2.3;     5 :      0.0;
    6 :     10.0;     7 :     30.2;     8 :     24.7;     9 :      9.7;    10 :     15.3;
   11 :      9.5;    12 :     10.6;    13 :     13.6;    14 :     23.1;    15 :     29.1;
   16 :     35.4;    17 :     31.6;    18 :      0.0;    19 :     33.4;    20 :     36.5;
   21 :     42.3;    22 :     38.1;    23 :     32.2;    24 :      0.0;
Origin  6
    1 :     12.6;     2 :      6.6;     3 :     16.6;     4 :     12.3;     5 :     10.0;
    6 :      0.0;     7 :     20.2;     8 :     14.7;     9 :     19.7;    10 :     25.4;
   11 :     19.5;    12 :     20.6;    13 :     23.7;    14 :     33.2;    15 :     39.1;
   16 :     25.4;    17 :     34.9;    18 :     22.3;    19 :     36.0;    20 :     26.5;
   21 :     34.7;    22 :     34.2;    23 :     42.2;    24 :     41.3;
Origin  7
    1 :     33.0;     2 :     27.0;     3 :     37.0;     4 :     32.7;     5 :     30.4;
    6 :     20.4;     7 :      0.0;     8 :      5.6;     9 :     20.7;    10 :     25.5;
   11 :     37.9;    12 :     41.0;    13 :     44.0;    14 :     32.5;    15 :     20.2;
   16 :      5.2;    17 :     14.7;    18 :      2.1;    19 :     15.8;    20 :      6.3;
   21 :     14.5;    22 :     14.0;    23 :     26.4;    24 :     26.4;
Origin  8
    1 :     27.4;     2 :     21.4;     3 :     31.4;     4 :     27.2;     5 :     24.8;
    6 :     14.8;     7 :      5.5;     8 :      0.0;     9 :     15.2;    10 :     20.9;
   11 :     33.3;    12 :     35.5;    13 :     38.5;    14 :     38.0;    15 :     25.7;
   16 :     10.7;    17 :     20.2;    18 :      7.6;    19 :     21.3;    20 :     11.8;
   21 :     20.0;    22 :     19.5;    23 :     31.9;    24 :     31.9;
Origin  9
    1 :     20.3;     2 :     26.3;     3 :     16.3;     4 :     12.0;     5 :      9.7;
    6 :     19.7;     7 :     20.5;     8 :     15.0;     9 :      0.0;    10 :      5.7;
   11 :     18.1;    12 :     20.3;    13 :     23.3;    14 :     31.8;    15 :     19.4;
   16 :     25.8;    17 :     22.0;    18 :     22.6;    19 :     23.7;    20 :     26.9;
   21 :     32.7;    22 :     28.5;    23 :     40.9;    24 :     41.0;
Origin  10
    1 :     26.0;     2 :     32.0;     3 :     22.0;     4 :     17.7;     5 :     15.4;
    6 :     25.4;     7 :     25.3;     8 :     20.8;     9 :      5.7;    10 :      0.0;
   11 :     12.4;    12 :     26.0;    13 :     29.0;    14 :     26.1;    15 :     13.7;
   16 :     20.1;    17 :     16.3;    18 :     23.2;    19 :     18.0;    20 :     27.5;
   21 :     27.0;    22 :     22.8;    23 :     35.2;    24 :     38.9;
Origin  11
    1 :     15.5;     2 :     21.5;     3 :     11.5;     4 :      7.2;     5 :      9.5;
    6 :     19.5;     7 :     37.5;     8 :     33.0;     9 :     17.9;    10 :     12.2;
   11 :      0.0;    12 :     13.6;    13 :     16.6;    14 :     13.7;    15 :     25.9;
   16 :     32.3;    17 :     28.5;    18 :     35.5;    19 :     30.3;    20 :     39.7;
   21 :     38.3;    22 :     35.0;    23 :     22.8;    24 :     26.5;
Origin  12
    1 :      8.0;     2 :     14.0;     3 :      4.0;     4 :      8.3;     5 :     10.6;
    6 :     20.6;     7 :     40.8;     8 :     35.3;     9 :     20.3;    10 :     25.9;
   11 :     13.7;    12 :      0.0;    13 :      3.0;    14 :     27.4;    15 :     39.7;
   16 :     46.0;    17 :     42.2;    18 :     42.9;    19 :     44.0;    20 :     40.5;
   21 :     32.4;    22 :     36.6;    23 :     24.4;    24 :     20.7;
Origin  13
    1 :     11.1;     2 :     17.1;     3 :      7.0;     4 :     11.3;     5 :     13.6;
    6 :     23.6;     7 :     43.8;     8 :     38.3;     9 :     23.3;    10 :     29.0;
   11 :     16.8;    12 :      3.0;    13 :      0.0;    14 :     30.4;    15 :     42.7;
   16 :     44.9;    17 :     45.3;    18 :     41.8;    19 :     47.0;    20 :     37.5;
   21 :     29.4;    22 :     33.6;    23 :     21.4;    24 :     17.7;
Origin  14
    1 :     29.3;     2 :     35.3;     3 :     25.3;     4 :     21.1;     5 :     23.4;
    6 :     33.4;     7 :     32.3;     8 :     37.9;     9 :     31.8;    10 :     26.0;
   11 :     13.8;    12 :     27.4;    13 :     30.5;    14 :      0.0;    15 :     12.2;
   16 :     33.4;    17 :     24.0;    18 :     30.3;    19 :     16.6;    20 :     26.0;
   21 :     24.6;    22 :     21.3;    23 :      9.1;    24 :     12.8;
Origin  15
    1 :     39.8;     2 :     45.8;     3 :     35.8;     4 :     31.5;     5 :     29.2;
    6 :     39.2;     7 :     20.1;     8 :     25.7;     9 :     19.5;    10 :     13.8;
   11 :     26.2;    12 :     39.8;    13 :     42.8;    14 :     12.4;    15 :      0.0;
   16 :     21.2;    17 :     11.7;    18 :     18.0;    19 :      4.3;    20 :     13.8;
   21 :     13.3;    22 :      9.1;    23 :     21.5;    24 :     25.2;
Origin  16
    1 :     38.2;     2 :     32.2;     3 :     42.2;     4 :     37.9;     5 :     35.6;
    6 :     25.6;     7 :      5.2;     8 :     10.8;     9 :     26.0;    10 :     20.2;
   11 :     32.6;    12 :     46.2;    13 :     45.1;    14 :     33.6;    15 :     21.3;
   16 :      0.0;    17 :      9.5;    18 :      3.2;    19 :     16.9;    20 :      7.4;
   21 :     15.6;    22 :     15.1;    23 :     27.5;    24 :     27.5;
Origin  17
    1 :     42.3;     2 :     41.7;     3 :     38.3;     4 :     34.0;     5 :     31.7;
    6 :     35.1;     7 :     14.7;     8 :     20.3;     9 :     22.0;    10 :     16.3;
   11 :     28.7;    12 :     42.3;    13 :     45.3;    14 :     24.1;    15 :     11.8;
   16 :      9.5;    17 :      0.0;    18 :     12.6;    19 :      7.4;    20 :     16.9;
   21 :     25.1;    22 :     20.9;    23 :     33.2;    24 :     37.0;
Origin  18
    1 :     35.0;     2 :      0.0;     3 :      0.0;     4 :     34.8;     5 :      0.0;
    6 :     22.4;     7 :      2.1;     8 :      7.6;     9 :     22.8;    10 :     23.4;
   11 :     35.8;    12 :     43.1;    13 :     42.0;    14 :     30.5;    15 :     18.1;
   16 :      3.2;    17 :     12.7;    18 :      0.0;    19 :     13.8;    20 :      4.3;
   21 :     12.4;    22 :     12.0;    23 :     24.3;    24 :      0.0;
Origin  19
    1 :     44.1;     2 :     42.8;     3 :      0.0;     4 :     35.9;     5 :     33.5;
    6 :     36.2;     7 :     15.8;     8 :     21.3;     9 :     23.9;    10 :     18.1;
   11 :     30.6;    12 :     44.1;    13 :     47.2;    14 :     16.7;    15 :      4.3;
   16 :     16.9;    17 :      7.4;    18 :     13.7;    19 :      0.0;    20 :      9.5;
   21 :     17.6;    22 :     13.4;    23 :     25.8;    24 :     29.5;
Origin  20
    1 :     39.3;     2 :     33.3;     3 :      0.0;     4 :     39.0;     5 :     36.7;
    6 :     26.7;     7 :      6.3;     8 :     11.9;     9 :     27.1;    10 :     27.7;
   11 :     40.1;    12 :     40.7;    13 :     37.7;    14 :     26.2;    15 :     13.9;
   16 :      7.4;    17 :     16.9;    18 :      4.3;    19 :      9.5;    20 :      0.0;
   21 :      8.2;    22 :      7.7;    23 :     20.1;    24 :     20.1;
Origin  21
    1 :     40.6;     2 :      0.0;     3 :      0.0;     4 :     40.9;     5 :     42.5;
    6 :     34.8;     7 :     14.4;     8 :     20.0;     9 :     32.8;    10 :     27.1;
   11 :     38.6;    12 :     32.6;    13 :     29.5;    14 :     24.7;    15 :     13.3;
   16 :     15.5;    17 :     25.0;    18 :     12.3;    19 :     17.6;    20 :      8.1;
   21 :      0.0;    22 :      4.2;    23 :     15.6;    24 :     11.9;
Origin  22
    1 :     44.8;     2 :     41.0;     3 :     40.8;     4 :     40.6;     5 :     38.3;
    6 :     34.4;     7 :     14.0;     8 :     19.6;     9 :     28.6;    10 :     22.9;
   11 :     35.3;    12 :     36.8;    13 :     33.7;    14 :     21.4;    15 :      9.1;
   16 :     15.1;    17 :     20.8;    18 :     12.0;    19 :     13.4;    20 :      7.7;
   21 :      4.2;    22 :      0.0;    23 :     12.4;    24 :     16.1;
Origin  23
    1 :     32.4;     2 :      0.0;     3 :     28.4;     4 :     30.1;     5 :     32.4;
    6 :     42.4;     7 :     26.3;     8 :     31.8;     9 :     40.8;    10 :     35.1;
   11 :     22.9;    12 :     24.4;    13 :     21.4;    14 :      9.1;    15 :     21.3;
   16 :     27.4;    17 :     33.0;    18 :     24.2;    19 :     25.6;    20 :     20.0;
   21 :     15.5;    22 :     12.2;    23 :      0.0;    24 :      3.8;
Origin  24
    1 :     28.7;     2 :      0.0;     3 :      0.0;     4 :     28.9;     5 :      0.0;
    6 :     41.2;     7 :     26.2;     8 :     31.7;     9 :     40.9;    10 :     38.8;
   11 :     26.6;    12 :     20.6;    13 :     17.6;    14 :     12.8;    15 :     25.0;
   16 :     27.3;    17 :     36.8;    18 :      0.0;    19 :     29.3;    20 :     19.8;
   21 :     11.8;    22 :     16.0;    23 :      3.7;    24 :      0.0;