<NUMBER OF ZONES> 24
<END OF METADATA>


Origin  1
    1 :      0.0;     2 :      4.8;     3 :      3.2;     4 :      6.6;     5 :      8.5;
    6 :     10.1;     7 :     26.2;     8 :     21.8;     9 :     16.2;    10 :     20.7;
   11 :     12.3;    12 :      6.4;    13 :      8.8;    14 :     23.3;    15 :     31.7;
   16 :     30.4;    17 :     33.8;    18 :     27.9;    19 :     35.2;    20 :     31.3;
   21 :     32.4;    22 :     35.7;    23 :     25.9;    24 :     23.0;
Origin  2
    1 :      4.8;     2 :      0.0;     3 :      8.0;     4 :     11.4;     5 :     13.3;
    6 :      5.3;     7 :     21.4;     8 :     17.0;     9 :     21.0;    10 :     25.5;
   11 :     17.1;    12 :     11.2;    13 :     13.6;    14 :     28.1;    15 :     36.5;
   16 :     25.6;    17 :     33.2;    18 :      0.0;    19 :     34.1;    20 :     26.5;
   21 :      0.0;    22 :     32.6;    23 :      0.0;    24 :      0.0;
Origin  3
    1 :      3.2;     2 :      8.0;     3 :      0.0;     4 :      3.4;     5 :      5.3;
    6 :     13.3;     7 :     29.4;     8 :     25.0;     9 :     13.0;    10 :     17.5;
   11 :      9.1;    12 :      3.2;    13 :      5.6;    14 :     20.1;    15 :     28.5;
   16 :     33.6;    17 :     30.6;    18 :      0.0;    19 :      0.0;    20 :      0.0;
   21 :      0.0;    22 :     32.5;    23 :     22.7;    24 :      0.0;
Origin  4
    1 :      6.6;     2 :     11.4;     3 :      3.4;     4 :      0.0;     5 :      1.9;
    6 :      9.9;     7 :     26.0;     8 :     21.6;     9 :      9.6;    10 :     14.1;
   11 :      5.7;    12 :      6.6;    13 :      9.1;    14 :     16.7;    15 :     25.1;
   16 :     30.2;    17 :     27.2;    18 :     27.7;    19 :     28.6;    20 :     31.1;
   21 :     32.6;    22 :     32.4;    23 :     23.9;    24 :     23.2;
Origin  5
    1 :      8.5;     2 :     13.3;     3 :      5.3;     4 :      1.9;     5 :      0.0;
    6 :      8.0;     7 :     24.2;     8 :     19.8;     9 :      7.7;    10 :     12.3;
   11 :      7.6;    12 :      8.5;    13 :     10.9;    14 :     18.5;    15 :     23.2;
   16 :     28.3;    17 :     25.3;    18 :      0.0;    19 :     26.7;    20 :     29.2;
   21 :     33.9;    22 :     30.5;    23 :     25.8;    24 :      0.0;
Origin  6
    1 :     10.1;     2 :      5.3;     3 :     13.3;     4 :      9.9;     5 :      8.0;
    6 :      0.0;     7 :     16.2;     8 :     11.8;     9 :     15.7;    10 :     20.3;
   11 :     15.6;    12 :     16.5;    13 :     18.9;    14 :     26.5;    15 :     31.3;
   16 :     20.3;    17 :     27.9;    18 :     17.8;    19 :     28.8;    20 :     21.2;
   21 :     27.7;    22 :     27.4;    23 :     33.8;    24 :     33.1;
Origin  7
    1 :     26.4;     2 :     21.6;     3 :     29.6;     4 :     26.2;     5 :     24.3;
    6 :     16.3;     7 :      0.0;     8 :      4.4;     9 :     16.6;    10 :     20.4;
   11 :     30.3;    12 :     32.8;    13 :     35.2;    14 :     26.0;    15 :     16.1;
   16 :      4.2;    17 :     11.8;    18 :      1.6;    19 :     12.7;    20 :      5.1;
   21 :     11.6;    22 :     11.2;    23 :     21.1;    24 :     21.1;
Origin  8
    1 :     21.9;     2 :     17.1;     3 :     25.1;     4 :     21.7;     5 :     19.9;
    6 :     11.9;     7 :      4.4;     8 :      0.0;     9 :     12.1;    10 :     16.7;
   11 :     26.6;    12 :     28.4;    13 :     30.8;    14 :     30.4;    15 :     20.5;
   16 :      8.6;    17 :     16.2;    18 :      6.1;    19 :     17.1;    20 :      9.5;
   21 :     16.0;    22 :     15.6;    23 :     25.5;    24 :     25.5;
Origin  9
    1 :     16.2;     2 :     21.0;     3 :     13.0;     4 :      9.6;     5 :      7.7;
    6 :     15.7;     7 :     16.4;     8 :     12.0;     9 :      0.0;    10 :      4.5;
   11 :     14.5;    12 :     16.2;    13 :     18.6;    14 :     25.4;    15 :     15.5;
   16 :     20.6;    17 :     17.6;    18 :     18.1;    19 :     19.0;    20 :     21.5;
   21 :     26.2;    22 :     22.8;    23 :     32.7;    24 :     32.8;
Origin  10
    1 :     20.8;     2 :     25.6;     3 :     17.6;     4 :     14.2;     5 :     12.3;
    6 :     20.3;     7 :     20.2;     8 :     16.6;     9 :      4.6;    10 :      0.0;
   11 :      9.9;    12 :     20.8;    13 :     23.2;    14 :     20.9;    15 :     11.0;
   16 :     16.1;    17 :     13.0;    18 :     18.6;    19 :     14.4;    20 :     22.0;
   21 :     21.6;    22 :     18.2;    23 :     28.1;    24 :     31.1;
Origin  11
    1 :     12.4;     2 :     17.2;     3 :      9.2;     4 :      5.8;     5 :      7.6;
    6 :     15.6;     7 :     30.0;     8 :     26.4;     9 :     14.3;    10 :      9.8;
   11 :      0.0;    12 :     10.9;    13 :     13.3;    14 :     11.0;    15 :     20.7;
   16 :     25.8;    17 :     22.8;    18 :     28.4;    19 :     24.2;    20 :     31.8;
   21 :     30.6;    22 :     28.0;    23 :     18.2;    24 :     21.2;
Origin  12
    1 :      6.4;     2 :     11.2;     3 :      3.2;     4 :      6.6;     5 :      8.5;
    6 :     16.5;     7 :     32.6;     8 :     28.2;     9 :     16.2;    10 :     20.8;
   11 :     11.0;    12 :      0.0;    13 :      2.4;    14 :     21.9;    15 :     31.7;
   16 :     36.8;    17 :     33.8;    18 :     34.3;    19 :     35.2;    20 :     32.4;
   21 :     25.9;    22 :     29.3;    23 :     19.5;    24 :     16.5;
Origin  13
    1 :      8.8;     2 :     13.6;     3 :      5.6;     4 :      9.1;     5 :     10.9;
    6 :     18.9;     7 :     35.1;     8 :     30.7;     9 :     18.6;    10 :     23.2;
   11 :     13.4;    12 :      2.4;    13 :      0.0;    14 :     24.4;    15 :     34.1;
   16 :     35.9;    17 :     36.2;    18 :     33.4;    19 :     37.6;    20 :     30.0;
   21 :     23.5;    22 :     26.9;    23 :     17.1;    24 :     14.1;
Origin  14
    1 :     23.5;     2 :     28.3;     3 :     20.3;     4 :     16.9;     5 :     18.7;
    6 :     26.7;     7 :     25.9;     8 :     30.3;     9 :     25.4;    10 :     20.8;
   11 :     11.1;    12 :     21.9;    13 :     24.4;    14 :      0.0;    15 :      9.8;
   16 :     26.8;    17 :     19.2;    18 :     24.2;    19 :     13.2;    20 :     20.8;
   21 :     19.7;    22 :     17.1;    23 :      7.3;    24 :     10.3;
Origin  15
    1 :     31.8;     2 :     36.6;     3 :     28.6;     4 :     25.2;     5 :     23.4;
    6 :     31.4;     7 :     16.1;     8 :     20.5;     9 :     15.6;    10 :     11.0;
   11 :     21.0;    12 :     31.8;    13 :     34.3;    14 :      9.9;    15 :      0.0;
   16 :     17.0;    17 :      9.4;    18 :     14.4;    19 :      3.5;    20 :     11.0;
   21 :     10.6;    22 :      7.3;    23 :     17.2;    24 :     20.2;
Origin  16
    1 :     30.6;     2 :     25.8;     3 :     33.8;     4 :     30.4;     5 :     28.5;
    6 :     20.5;     7 :      4.2;     8 :      8.6;     9 :     20.8;    10 :     16.2;
   11 :     26.1;    12 :     37.0;    13 :     36.1;    14 :     26.9;    15 :     17.0;
   16 :      0.0;    17 :      7.6;    18 :      2.5;    19 :     13.6;    20 :      5.9;
   21 :     12.5;    22 :     12.1;    23 :     22.0;    24 :     22.0;
Origin  17
    1 :     33.8;     2 :     33.3;     3 :     30.6;     4 :     27.2;     5 :     25.4;
    6 :     28.1;     7 :     11.8;     8 :     16.2;     9 :     17.6;    10 :     13.0;
   11 :     23.0;    12 :     33.8;    13 :     36.3;    14 :     19.3;    15 :      9.4;
   16 :      7.6;    17 :      0.0;    18 :     10.1;    19 :      5.9;    20 :     13.5;
   21 :     20.0;    22 :     16.7;    23 :     26.6;    24 :     29.6;
Origin  18
    1 :     28.0;     2 :      0.0;     3 :      0.0;     4 :     27.8;     5 :      0.0;
    6 :     18.0;     7 :      1.7;     8 :      6.1;     9 :     18.2;    10 :     18.7;
   11 :     28.6;    12 :     34.5;    13 :     33.6;    14 :     24.4;    15 :     14.5;
   16 :      2.5;    17 :     10.1;    18 :      0.0;    19 :     11.0;    20 :      3.4;
   21 :      9.9;    22 :      9.6;    23 :     19.5;    24 :      0.0;
Origin  19
    1 :     35.3;     2 :     34.2;     3 :      0.0;     4 :     28.7;     5 :     26.8;
    6 :     28.9;     7 :     12.6;     8 :     17.1;     9 :     19.1;    10 :     14.5;
   11 :     24.4;    12 :     35.3;    13 :     37.7;    14 :     13.4;    15 :      3.5;
   16 :     13.5;    17 :      5.9;    18 :     11.0;    19 :      0.0;    20 :      7.6;
   21 :     14.1;    22 :     10.7;    23 :     20.6;    24 :     23.6;
Origin  20
    1 :     31.4;     2 :     26.6;     3 :      0.0;     4 :     31.2;     5 :     29.4;
    6 :     21.4;     7 :      5.1;     8 :      9.5;     9 :     21.6;    10 :     22.1;
   11 :     32.1;    12 :     32.6;    13 :     30.2;    14 :     21.0;    15 :     11.1;
   16 :      5.9;    17 :     13.5;    18 :      3.4;    19 :      7.6;    20 :      0.0;
   21 :      6.5;    22 :      6.2;    23 :     16.1;    24 :     16.1;
Origin  21
    1 :     32.5;     2 :      0.0;     3 :      0.0;     4 :     32.7;     5 :     34.0;
    6 :     27.8;     7 :     11.5;     8 :     16.0;     9 :     26.2;    10 :     21.7;
   11 :     30.8;    12 :     26.1;    13 :     23.6;    14 :     19.8;    15 :     10.6;
   16 :     12.4;    17 :     20.0;    18 :      9.9;    19 :     14.1;    20 :      6.5;
   21 :      0.0;    22 :      3.4;    23 :     12.5;    24 :      9.5;
Origin  22
    1 :     35.8;     2 :     32.8;     3 :     32.6;     4 :     32.5;     5 :     30.6;
    6 :     27.5;     7 :     11.2;     8 :     15.7;     9 :     22.9;    10 :     18.3;
   11 :     28.2;    12 :     29.4;    13 :     27.0;    14 :     17.1;    15 :      7.2;
   16 :     12.1;    17 :     16.6;    18 :      9.6;    19 :     10.7;    20 :      6.2;
   21 :      3.4;    22 :      0.0;    23 :      9.9;    24 :     12.9;
Origin  23
    1 :     25.9;     2 :      0.0;     3 :     22.7;     4 :     24.1;     5 :     26.0;
    6 :     34.0;     7 :     21.0;     8 :     25.5;     9 :     32.7;    10 :     28.1;
   11 :     18.3;    12 :     19.5;    13 :     17.1;    14 :      7.3;    15 :     17.0;
   16 :     21.9;    17 :     26.4;    18 :     19.4;    19 :     20.5;    20 :     16.0;
   21 :     12.4;    22 :      9.8;    23 :      0.0;    24 :      3.0;
Origin  24
    1 :     22.9;     2 :      0.0;     3 :      0.0;     4 :     23.1;     5 :      0.0;
    6 :     33.0;     7 :     20.9;     8 :     25.4;     9 :     32.7;    10 :     31.1;
   11 :     21.3;    12 :     16.5;    13 :     14.1;    14 :     10.2;    15 :     20.0;
   16 :     21.8;    17 :     29.4;    18 :      0.0;    19 :     23.5;    20 :     15.9;
   21 :      9.4;    22 :     12.8;    23 :      3.0;    24 :      0.0;